TION 1204060
MENT 950534
EMEN 716108
DELA 669536
ATIO 663577
IQUE 650168
ELLE 559298
DANS 524845
POUR 483581
ESDE 423765
EDES 388124
ONDE 383511
IOND 373955
IONS 360602
ANSL 351881
AIRE 348812
PLUS 339802
ILLE 335479
QUEL 333244
SONT 322336
EDEL 319756
QUES 317829
COMM 307474
ENTD 307263
EURS 300517
NTDE 295737
PART 286345
NTRE 284951
OUVE 278740
ENTE 273729
SLES 270245
ENTR 267277
OMME 264651
IENT 259168
ARTI 256222
REDE 255337
LEME 255125
EPAR 252934
ENTA 252500
ENTS 248525
ECON 246801
LEUR 245349
AVEC 244381
RLES 244027
PORT 243124
IÈRE 240547
SION 238836
TDES 237731
CONS 235378
ETTE 233175
ELES 231859
ONNE 229891
SDES 227348
NTLE 227319
LEST 227247
NSLE 227034
EEST 225896
TANT 224472
ANCE 224281
PARL 221733
CTIO 221245
COMP 218948
TEUR 216290
TLES 214793
SDEL 213811
CONT 212283
SENT 212204
URLE 208908
TIQU 208757
LLES 208489
ENCE 202269
MAIS 201910
LEDE 200583
ESET 200374
ONTR 198724
LESP 196933
RENT 196789
ETDE 195266
NDES 195054
ESCO 194718
ENTL 191941
SURL 191678
TRES 190695
ESON 186904
SPAR 182701
SSON 181512
DESA 181370
VERS 178514
SQUE 176749
ESSE 175375
OURS 174899
EQUI 174526
ANTE 173243
MBRE 172901
ILES 170365
LESD 168354
INTE 167380
TURE 167211
CETT 165031
ENTI 163594
ISTE 163051
OURL 162930
ANTS 162723
LESC 161595
NTEN 161207
ECOM 158603
EDAN 158371
LESA 157286
TUNE 156934
LORS 156529
ESTE 154893
EPOU 154835
RATI 153183
ETLE 152245
IRES 151908
ÉTAI 151757
DEUX 150925
ARLE 150843
QUED 149889
TOUT 149822
TEDE 149797
FRAN 149533
TENT 148212
AINS 147821
QUIL 147701
OIRE 147600
NDAN 147262
TDEL 147235
LACO 147083
VENT 147001
NTER 146875
ANDE 146677
ESPA 146330
AINE 146235
DESC 146016
ITIO 145489
ESTA 144223
REMI 142987
UTRE 142065
ENNE 141648
ANTL 141546
LESE 141196
ÉPAR 140701
FORM 140693
ESTR 140242
ESPR 139112
IONN 138706
DESP 135787
AUTR 135777
IONA 135661
ABLE 134560
ELAC 134548
RDES 133850
ESSO 133385
EUNE 133215
PREM 132594
ONNA 132206
RESS 131945
ESEN 131698
VANT 131600
ALEM 131431
ISON 130988
ESUR 130850
ERLE 130479
ESTU 130353
ESPO 130295
RAND 129506
URDE 129169
DUNE 127762
FAIT 127286
NSDE 127149
ENDA 127046
SQUI 126643
JOUR 126605
ENTP 126280
DESE 126058
LESS 126027
EQUE 125733
RÉSE 125662
VOIR 125531
UELE 125530
OUTE 125216
USSI 125115
NDEL 125022
NEST 124845
ERRE 124771
EPRO 124626
NTLA 124588
PRÉS 124191
GRAN 124112
RELE 123800
ORTE 123754
COUR 123389
ESSI 123278
ELAP 122937
REST 122889
PUIS 122212
ANTD 121888
SCON 121877
ASSE 121726
URLA 121598
ENSE 121170
TAIT 120860
RSDE 120603
RSON 120583
NSLA 120509
PRÈS 118268
TOUR 117569
ESTI 117463
STUN 117053
INES 116509
LECO 116330
CEST 115851
VILL 115817
ONST 115729
ONSE 115605
ISSE 115474
ÊTRE 115429
DELE 115115
ESQU 114936
TATI 114720
EDEC 114325
UEDE 114275
ÉRIE 114202
IEUR 114167
DECE 113365
DANT 113251
DESO 112876
DEST 112614
SDAN 112453
NEDE 112224
EURD 112006
NTES 111538
DENT 111436
ESES 110824
TAIN 110493
MÊME 110280
TPAS 110125
AIEN 109940
SANT 109918
LAPR 109775
ÉSEN 109748
ESTL 109685
LLED 109425
SPOU 109296
TPAR 109201
DECO 109065
NTUN 108961
ENCO 108883
IERS 108672
REPR 108310
DESS 108204
SCOM 108110
SONN 108044
EURE 107954
NNÉE 107629
ETOU 107178
ECTI 107010
ONDU 106857
AUSS 106557
CEDE 106525
ALIS 106367
IONE 106314
RAIT 105013
ALES 104998
ESTD 104738
RESD 104555
EAUX 104050
AVAI 103982
EPLU 103515
NCES 102914
SSIO 102907
NTRA 102697
TOIR 102422
TROU 102293
AILL 102269
STRA 102223
ESAN 101840
ELAR 100855
SSUR 100645
UNES 100540
LLEM 100536
UELL 100190
ENOM 99040
OURD 98950
RTIE 98510
TREL 98285
IRED 98280
TÉDE 98157
LATI 98044
DEMA 98015
SERV 97771
ERSO 97740
PEND 97142
TERR 96680
CENT 96658
SEST 96252
TEMP 96071
ONSD 95899
REND 95577
UVER 95474
ERDE 95434
MAIN 95253
LITÉ 95042
ONTE 95038
TCON 95011
RANC 94802
TQUE 94734
ISSA 94677
AISS 94561
UITE 94460
NTPA 93507
NATI 93494
DEDE 93429
AISO 93266
ERME 93237
IGNE 93226
LEPR 93105
ITÉD 93092
LEMA 93015
LESM 92868
ESTP 92777
ROIS 92730
SSAN 92436
IENN 92435
CIEN 92393
VECL 92305
RELA 92273
ESAU 92197
ECHA 91916
EPRÉ 91845
MATI 91478
CHAN 91419
MPOR 91366
RECO 91334
EDUN 91144
ESLE 91037
OUPE 90866
URES 90764
APRÈ 90572
IEDE 90560
PARA 90497
OMBR 90454
AQUE 90235
MMEN 90160
NOUV 90093
NIQU 89928
ISTO 89725
LAVI 89243
EDEP 89213
ÈRES 89170
ESOU 88742
NCED 88706
UTIL 88660
URSD 88509
MONT 88307
SOUS 88172
SDEC 88072
NDRE 87643
RUNE 87563
ILIS 87373
ERNE 87360
AGES 86869
ROUV 86638
PERS 86497
TDAN 86462
RTIC 86454
NEME 86146
ETRO 86065
ALOR 86015
ETRA 85823
UNEP 85526
PEUT 85466
MAND 85213
SPRO 85138
CONN 84469
TRAN 84297
ETLA 84220
PASS 84164
EETL 84111
BLES 83698
IENS 83589
STRU 83301
INDE 83143
EMPL 83134
TEST 83045
ELAS 82866
ESSU 82815
ALLE 82784
NOMB 82702
DONN 82610
NANT 82567
TRED 82475
ONTA 82375
REET 82340
NCON 82210
TAIR 82157
TSDE 82083
NÉES 82078
RANT 82025
SEDE 81916
ANNÉ 81611
NALE 81484
TILI 81111
INSI 81068
EMAN 81037
QUIP 81012
AINT 80882
FOIS 80564
ORTA 80525
RESP 80484
DEVI 80461
ACTI 80364
EUSE 80250
ROUP 80132
EMAI 80024
ENTU 79979
TEME 79782
OGRA 79666
ÉGAL 79572
ONAL 79451
LUSI 79436
LLEE 79204
HIST 79121
PREN 79094
UVEN 79030
AISE 78798
OUSL 78698
ÉREN 78640
RALE 78580
TIVE 78397
DIFF 78378
UNEC 78141
ESMA 78108
SOCI 78066
SETD 78061
NTQU 78006
OURN 77999
GALE 77913
ELAM 77877
ENTC 77848
EPRI 77814
TRAI 77779
UBLI 77769
ESDU 77649
ESIN 77648
NTAU 77517
ITÉS 77434
TRÈS 77399
TRAV 77308
PRIS 77243
NENT 77162
PLAC 77127
ITDE 76990
CATI 76530
MMUN 76435
VIEN 76347
EMIE 76337
EETD 76325
RESE 76280
TITU 76126
DENO 76110
PROP 76104
EDER 76075
OMMU 75766
MIER 75658
COND 75578
EMBR 75469
EMON 75466
AVAN 75460
LAIR 75254
ORMA 75196
EMAR 74973
RENC 74836
FÉRE 74812
LECT 74811
IDEN 74575
EILL 74556
IBLE 74538
DESD 74385
ESPE 74379
SPLU 74365
RIQU 74256
CEQU 74015
ISAT 74007
REME 73902
DESM 73879
EDEM 73775
ENDR 73692
MEDE 73603
LISE 73582
ONDA 73539
CERT 73468
ARLA 73343
ORME 73219
NNES 73061
CHER 73060
ISES 73057
ANGE 72777
EAVE 72770
RISE 72755
ENDE 72710
SIQU 72632
SATI 72539
PERM 72533
QUEC 72455
NSTR 72450
LESO 72352
ICAT 72346
QUIS 72334
LESR 72231
CESS 72161
VEAU 72050
PUBL 72020
RODU 71974
LACE 71901
VAIT 71832
GÉNÉ 71793
ACON 71745
ILLA 71394
ESDA 71360
LENT 71318
EPRE 71287
LIQU 71190
ENTÀ 71074
AITD 71072
ONCE 71049
RAPH 70857
TIEN 70806
ELAN 70725
IVER 70702
ELON 70702
ESCA 70679
STAN 70587
ATEU 70586
TÉRI 70490
GRAP 70411
STRE 70271
ALIT 70242
EINT 69994
NÉRA 69910
ESRE 69907
ÉRAL 69854
ELAT 69846
SSER 69788
QUEE 69598
EÀLA 69529
ANTA 69512
RTAI 69487
TERN 69485
SDEP 69412
TREP 69407
ESCH 69405
ESSA 69353
SANS 69333
ITES 69167
BIEN 69092
ARDE 68975
EPUI 68810
ETIT 68798
LOGI 68775
EMBL 68747
ERLA 68734
MPLE 68714
TROI 68615
TPOU 68592
PRIN 68518
SSES 68483
RANÇ 68315
LARÉ 68234
ERTA 68135
ÉNÉR 68058
NNEL 68053
SEMB 68021
NSUN 68006
USLE 67997
ISTR 67826
EREN 67791
LANC 67789
ONTI 67383
APPE 67326
MIÈR 67279
GROU 67151
QUEN 67131
CHAR 67106
NTSD 67103
SUNE 66991
SETL 66841
ARCH 66822
MILL 66698
CONC 66681
DERN 66611
LENO 66589
URSE 66511
ELAV 66491
UREN 66484
SECO 66460
MOND 66371
NTIN 66273
SUIT 66160
SSEM 65999
OLOG 65983
UELA 65956
ÉQUI 65806
STEN 65713
ETEN 65435
RSQU 65408
APHI 65348
AUTO 65347
DERE 65302
TSUR 65209
ICIE 65206
LEES 65132
ESTC 65077
RAVA 65071
DEPR 64918
RINC 64833
LAMA 64666
PÉRI 64604
RDEL 64579
ERSE 64538
LESI 64479
ESPL 64446
ERET 64415
ESDI 64375
IALE 64090
AÉTÉ 64042
SAIN 64010
ECOU 63838
PROD 63822
ONTL 63801
LAIS 63776
IONP 63648
ASSI 63612
STES 63532
NTCO 63502
ANTI 63476
COUP 63471
ICUL 63470
LIER 63378
ANSU 63377
DONT 63363
LIEU 63341
PRES 63331
ELUI 63282
FOND 63254
PARE 63247
OURC 63178
RTAN 63143
LESF 63102
ENOU 63036
TABL 63003
SIGN 62987
TCOM 62936
EFAI 62854
UJOU 62824
ÉEDE 62706
IMPO 62687
UTIO 62587
RIEU 62479
GEDE 62406
AUCO 62353
AVOI 62334
LISÉ 62235
DEPA 62212
ELAF 62118
TEAU 62077
LASS 62066
CIPA 62066
AITE 61990
LEPA 61726
NTDA 61669
OSIT 61603
LONG 61539
ANÇA 61520
ARRI 61513
ACOM 61462
CHES 61295
FAIR 61285
FFIC 61193
RAIN 61186
UNED 61164
ERNI 61156
SDEU 61094
NÇAI 60988
TSON 60973
VERT 60967
PARU 60879
INST 60872
EVIE 60831
RANS 60742
ONES 60645
ERSI 60507
ECET 60463
IMEN 60439
ÉRAT 60331
UCTI 60312
INCI 60255
SEUL 60238
CTEU 60225
DELI 60019
IREC 60004
TORI 59994
ONSI 59946
ESMO 59903
CRIT 59864
RMET 59737
SANC 59728
ECTE 59671
DELÉ 59621
NTAI 59585
CELL 59583
LLEC 59560
STIT 59542
ISQU 59408
EMPS 59351
AITP 59342
TESD 59248
ONTD 59213
MOIN 59201
RIEN 59188
ÇAIS 59113
SSEN 59056
NESE 59035
UDES 59027
NPAR 58802
EPAS 58723
ÉTAT 58679
UNEF 58677
NTSE 58666
ARTE 58610
EMIÈ 58561
OINT 58556
DITI 58552
SONP 58515
DELO 58502
DECH 58496
NIVE 58474
SITI 58447
ANCI 58300
ESDÉ 58260
NTDU 58245
SIEU 58229
ORSD 58222
MINI 58117
POSI 58046
RQUE 57934
LANT 57908
LERE 57899
TPLU 57885
USDE 57800
ENTÉ 57771
LAPL 57763
AGNE 57730
LLER 57686
SONS 57668
TALE 57643
LEPO 57559
APPA 57484
USQU 57474
ILIT 57325
SESP 57291
PPEL 57269
OULE 57241
ATUR 57232
ERUN 57147
EPER 57137
ONNÉ 57088
REDU 57030
TEND 57027
LISA 56931
ITAN 56888
SEME 56843
AGED 56776
UEST 56740
UNEA 56736
OMPO 56708
ONET 56639
EVEN 56546
DIRE 56473
REEN 56470
ISDE 56396
STIN 56382
UIPE 56356
EAUD 56314
LEDÉ 56313
ITRE 56260
INED 56219
USIE 56191
ONSA 56168
ENAN 56065
SAUT 56062
ATIQ 56051
PPAR 56040
SERA 56038
ETER 55993
RCHE 55823
MARI 55810
LIEN 55772
METT 55766
DESR 55754
TERM 55710
DEPU 55708
NIST 55707
ONTP 55702
LEMO 55691
URUN 55628
SSOU 55613
AMME 55554
ONDI 55508
PROC 55502
ÉEPA 55502
ONCO 55440
MMES 55343
TREE 55333
QUEP 55225
MPOS 55215
ISEN 55193
AUTE 55127
UTES 55115
SOUV 54995
ELQU 54939
ENFA 54925
ECLE 54825
FICI 54779
ISME 54733
NCER 54728
STER 54611
NECO 54575
AUDE 54543
EFRA 54538
ECES 54456
EENT 54393
UVRE 54382
LEET 54360
POSS 54279
URAN 54277
ATTE 54142
LLEU 54082
SDEM 53992
UVEL 53991
DEME 53952
OURA 53893
QUEM 53802
LAGE 53780
CONF 53766
CESD 53759
SITE 53646
RÉSI 53617
ISTI 53514
ESAI 53474
ECHE 53391
DISP 53386
LAPO 53276
ORSQ 53260
EAUC 53260
EFFE 53221
LEQU 53208
SFOR 53200
AFIN 53192
LLEA 53161
ONTÉ 53145
EFOR 53086
SÉTA 53080
NAIS 53001
STOI 52898
ISSI 52776
PAGN 52715
POLI 52690
EDEV 52594
DESÉ 52591
NCIE 52588
ROIT 52538
DUIT 52480
ARIS 52429
RONT 52421
LARE 52298
SIMP 52145
ITPA 52121
FORT 52095
ISLE 52065
ANIS 52029
LQUE 52015
ENSI 51993
ISÉE 51890
OINS 51860
ESÉT 51850
RESA 51817
TÊTR 51764
REQU 51757
ÈRED 51689
NIER 51669
HABI 51619
RITÉ 51598
SAVE 51568
GUER 51563
ITAI 51557
QUAN 51539
TUEL 51488
NTAL 51486
NCIP 51458
URCE 51449
CHAM 51353
BREU 51353
ECLA 51250
ESER 51223
ITAL 51220
REAU 51202
TTOU 51185
POSE 51112
CIAL 51087
UILL 50996
PHIE 50963
TLEP 50816
LECH 50813
RÉAL 50797
CLES 50756
MBLE 50702
ELAL 50693
PARI 50685
CULT 50685
NEUR 50616
SAGE 50610
EURO 50601
PLAN 50563
VEME 50542
ARGE 50396
NQUE 50336
UESD 50299
LECA 50252
RÉGI 50231
EDET 50103
LESL 50015
SCHA 50010
PETI 49999
ISAN 49991
SIDE 49990
UPAR 49948
USES 49901
ARQU 49890
UISE 49877
ERES 49866
SPER 49858
NSTA 49835
LAFO 49799
NCOR 49790
LESÉ 49779
ESAR 49754
BLED 49716
ÉDES 49706
NTIE 49593
HOMM 49572
ISER 49571
AITL 49551
STAT 49542
PAYS 49532
PARC 49424
FIND 49420
EPEN 49326
RETR 49323
TESE 49314
NGUE 49244
NSTI 49234
ITIQ 49173
TENA 49138
ÉCRI 49135
UELQ 49124
INAL 49116
TREC 49088
TOUS 49025
OQUE 48982
LUSD 48918
NESD 48871
SDUN 48783
ITUN 48728
ASSA 48722
ESFO 48685
RTDE 48613
ERMI 48579
ALED 48551
ONEN 48539
STLE 48528
IEUX 48496
EGRA 48459
EDEN 48452
SOND 48430
ETTR 48409
TDUN 48375
COLL 48315
CTIV 48309
UESE 48279
RECT 48229
INTÉ 48185
NCHE 48155
MISS 48129
ILLI 48126
RMAT 48083
REUN 48080
VISI 48069
ITEN 48032
URED 48018
ILSE 47994
SUIV 47975
RAVE 47943
RIST 47907
NAGE 47884
ERVI 47848
TRAT 47823
STRO 47785
DESF 47785
ITLE 47706
SEAU 47698
TDEC 47496
DETR 47473
APRO 47441
TQUI 47340
ARUN 47340
NTSO 47288
ESAV 47283
ENIR 47282
UXDE 47263
ABIT 47243
DONC 47223
ESTS 47217
ESRÉ 47210
INIS 47202
NTRÉ 47183
SONA 47162
AVIL 47148
TIER 47078
LADI 47070
IONL 46968
TÀLA 46942
SITU 46935
APRE 46934
LETE 46926
EUVE 46874
ONLE 46858
TELL 46839
TLAP 46836
NQUI 46816
RUCT 46760
BRES 46737
DESI 46691
IFFÉ 46682
NTSU 46662
EFOI 46566
LAND 46536
TRUC 46535
PROF 46530
IÈME 46502
ETUN 46458
LESU 46452
SANN 46333
NTET 46317
GION 46274
SPRI 46271
NTAN 46257
OUVR 46200
FFÉR 46158
RACT 46155
TDON 46148
DEPO 46104
MILI 46098
SILE 46095
TAUX 46086
TAUS 46077
ECAR 46063
POIN 46048
ÉLEC 45998
ANSD 45959
JOUE 45958
TUDE 45942
DEMO 45937
LEPL 45847
EDED 45832
FINA 45809
NESO 45808
EMME 45807
MORT 45786
ANTP 45780
ANCH 45755
SSAI 45749
SENC 45715
DEPL 45682
UCOU 45678
RIGI 45669
ESAC 45615
NCOM 45580
CIDE 45567
OURR 45553
ERNA 45511
EPLA 45493
ELEU 45488
LIST 45430
BRED 45394
DÉCO 45352
EDÉC 45350
NSON 45261
TDEP 45223
NELL 45165
NNAI 45145
UNDE 45115
OLIT 45082
UERR 44945
ORIG 44945
INDI 44937
ESDO 44937
TTEN 44933
ENVI 44906
EVER 44893
ALIE 44880
UISS 44875
SETR 44871
SORT 44852
TENC 44824
DROI 44792
ELAD 44771
EPEU 44768
NTAT 44755
LACH 44745
AUXD 44734
ENRE 44706
APLU 44683
EDUC 44666
ENES 44606
NSEI 44598
ANSC 44590
STRI 44572
SDER 44520
OCHE 44512
SPOR 44501
EAUS 44450
ROCH 44406
MÉRI 44386
SEUR 44347
LEDU 44326
AMIL 44314
ANDA 44280
EAUT 44271
QUIE 44234
IGIN 44198
IEST 44193
DAUT 44176
ESCE 44144
ORTI 44137
ÉMEN 44111
EULE 44087
RAPP 44062
UVEA 44047
SENS 44046
ELEN 44017
LEAU 44016
SGRA 44014
JUSQ 43956
REPO 43917
IONC 43892
ACHA 43890
SLEC 43887
ÉCON 43743
ULAT 43694
STDE 43664
ITED 43657
NFOR 43641
URSA 43583
IELL 43539
RAIS 43527
LUTI 43516
TÉTÉ 43494
ESNO 43417
DUCO 43355
RGAN 43352
EDON 43352
OISE 43310
IÉTÉ 43301
ELIN 43275
LACA 43254
RSES 43214
ETSE 43195
ORGA 43151
ÉALI 43053
RICA 43044
UCHE 43036
RRES 42996
TESS 42962
ÉDIT 42915
CORE 42880
NSET 42872
POUV 42853
ÈREN 42835
CEPT 42828
DUCT 42821
PARD 42735
IDES 42722
QUER 42705
LESB 42688
TRIC 42545
ELEC 42535
ESLA 42528
IRDE 42516
RLAP 42510
ERIE 42483
ELOP 42482
NCTI 42480
DECA 42476
ERCH 42467
VELL 42450
RTOU 42431
ELEP 42421
OISI 42361
SCRI 42356
NEPA 42298
OMPA 42267
COUV 42198
EDIS 42186
IPAL 42157
EXTE 42151
TELE 42125
RADI 42121
UEUR 42094
ANGL 42088
STED 42083
TIME 42067
ANDI 42042
QUIA 41958
ALDE 41930
OCIA 41850
AISA 41845
ONSO 41844
LAMO 41842
EDEF 41807
ONNU 41787
ISPO 41786
PRÉC 41781
RIÈR 41774
AITA 41740
UANT 41704
CLAS 41666
ORIE 41650
LANG 41630
ERAI 41626
STIQ 41520
VAIL 41499
REUX 41475
UEET 41460
IVRE 41429
EÉTA 41396
ERSA 41337
ODUI 41302
REDA 41228
OPUL 41226
LOPP 41225
ANSS 41206
NTÉT 41194
RELI 41121
EJOU 41086
UREL 41082
UNIV 41071
UNEM 41067
ENSU 41062
PTIO 41053
ISTA 41043
FAMI 41032
DEDÉ 41023
NSER 41019
LITI 41004
SERE 40989
AMAI 40895
UENT 40884
ERSL 40841
ISLA 40823
POSÉ 40781
APPR 40772
SMAI 40748
ÉESD 40747
TAIL 40658
TPRO 40630
NTPO 40517
ESTÉ 40510
UIRE 40481
PULA 40479
ROPR 40471
MANI 40389
TREM 40384
OLON 40380
ENQU 40363
DEVE 40358
NDEC 40357
ULES 40323
SCOU 40308
TENS 40249
APAR 40178
TRUI 40174
AUSE 40171
OURE 40147
GIQU 40129
TSOU 40127
TALO 40125
ENTO 40102
ÉTUD 40101
ISIO 40098
QUAT 40059
NIÈR 40058
ESLI 40036
DEVA 40032
ÉQUE 40017
PPOR 39967
REMP 39954
MINE 39954
IFIC 39925
ERVE 39914
NAIR 39895
IREL 39857
SINT 39766
IREE 39746
ONCT 39616
LELE 39612
STOU 39605
SPOS 39588
VELO 39554
ERCE 39540
TTRE 39529
LATE 39524
NTCE 39494
NTÀL 39451
STPA 39436
NORD 39436
RESO 39423
ÉGIO 39422
LESV 39418
DIST 39381
MARQ 39373
SPEC 39354
SURE 39340
BEAU 39339
IRON 39302
EQUA 39283
NTED 39275
IERD 39236
NFRA 39184
TICU 39113
ICIP 39099
ATIV 39078
FINI 39031
HAUT 39020
RSLE 39007
HAMP 38977
IVAN 38974
SAIS 38972
GANI 38960
NDEM 38942
SIST 38933
RDAN 38929
SDET 38901
FANT 38888
SIBL 38884
RNIE 38882
SÀLA 38868
POPU 38780
ESTO 38767
NPRO 38724
PECT 38722
ROPO 38707
RAGE 38705
EETS 38704
QUEA 38702
ENDU 38687
REPA 38618
JEUN 38609
PROV 38595
EXIS 38555
ANTQ 38488
LLEP 38417
LÉTA 38410
TLEC 38378
LAVA 38343
RETO 38332
CTUE 38324
ÉPOU 38320
SSEU 38307
ROMA 38289
TAIE 38258
ESAL 38237
XIST 38218
IENC 38214
AITS 38211
CAIN 38207
DUMO 38190
TÉGA 38113
STAL 38076
OURT 38074
NTPR 38055
ERTE 38052
OMMA 38033
FONC 38018
IATI 38000
MÉDI 37968
ONDÉ 37953
RÈSL 37924
OMPT 37916
MIQU 37876
REUS 37847
ITÉE 37844
NDEP 37840
ÉSDE 37802
NCEE 37793
STLA 37775
SQUA 37775
ÉDAN 37742
SÉES 37731
NDED 37710
DEDI 37698
NTOU 37674
CITÉ 37672
LINT 37665
VOLU 37660
LAPA 37648
NTSA 37643
INDU 37637
LAFI 37635
NOMI 37627
NAUT 37606
NTÉR 37593
LLET 37546
ITUÉ 37545
TECH 37523
USTR 37499
NSCE 37471
SAPP 37469
SDED 37455
MPAG 37446
UECE 37443
ONQU 37426
UNER 37402
TERL 37357
TRAD 37341
OYEN 37310
UMEN 37281
TAGE 37280
STCO 37237
TREA 37226
MMEL 37211
ELET 37195
RITA 37190
TSET 37175
ELAG 37121
NFAN 37094
SINS 37093
TLAC 37087
BILI 37084
NPOU 37079
TALI 37068
TAVE 37047
ELAB 37025
LALI 37024
RMES 36993
DÉVE 36954
LETR 36882
SPON 36873
ULAI 36867
SSED 36851
SESD 36830
NNEM 36813
EDEB 36794
LASO 36792
NSID 36790
ÈREM 36789
ESVI 36784
SSOC 36779
ONOM 36739
RCES 36736
INIT 36699
VALE 36687
NDUN 36666
TRIB 36656
CEPE 36571
CELU 36552
SSIB 36539
RÈSD 36508
ICHE 36477
ERRI 36466
ICAI 36406
UNCO 36385
ESOR 36375
NOMD 36373
EPOS 36344
HERC 36290
AVER 36273
TÈRE 36237
STAU 36228
RRIÈ 36221
SDON 36219
NEET 36216
AMÉR 36203
ÈTRE 36168
TITR 36152
TDEM 36148
NDER 36143
RECH 36135
TIED 36116
RTIS 36103
INCE 36074
RLAC 36073
SSIN 36072
RTEN 36054
MISE 36028
ISPA 36019
GENT 36012
CUNE 36012
TTES 35997
ANTU 35995
IREN 35987
FICA 35985
RIBU 35976
LUST 35936
ATTA 35921
LABA 35885
ÉBUT 35862
UTDE 35861
RTES 35823
ACHE 35796
DÉBU 35788
STAR 35785
LAQU 35778
ISED 35777
EDEU 35762
ÉVEL 35735
MUNE 35676
OMPL 35664
UROP 35658
NEAU 35643
CTUR 35640
LIGN 35614
ÀPAR 35612
ELEM 35594
INSD 35573
ELOR 35508
VITÉ 35504
COLE 35503
ÉDEL 35488
DIVI 35464
EURP 35389
TEET 35344
ORCE 35320
SPRÉ 35279
ÉSID 35266
XEMP 35229
BITA 35225
EGRO 35192
QUET 35106
RESC 35104
ANSP 35095
AURA 35086
MESD 35058
TDEV 35046
EXEM 35044
DETO 35031
MÈTR 35030
LADE 35018
DEFA 35004
SESE 34990
LAFA 34987
EVOI 34987
LLEN 34980
OISS 34961
RUIT 34957
NNEN 34942
UILE 34935
ETCO 34918
UIVA 34887
DELU 34869
ESAP 34867
RLEC 34850
NTEL 34799
COLO 34790
ONPR 34769
PÉRA 34755
SYST 34731
URSP 34710
EMÊM 34678
EXPL 34676
MUSI 34637
AISL 34627
AREN 34586
AVIE 34578
COMB 34574
OGIE 34565
ECUN 34552
UNET 34546
RLEP 34518
TEDU 34511
NOMM 34472
TATS 34466
TEIN 34397
IMPL 34395
NSSO 34385
MARC 34379
NELE 34359
NALI 34354
NTEM 34350
RMÉE 34348
RÔLE 34339
EIND 34333
IVES 34273
SLAC 34258
DEMI 34254
ETAU 34238
CELA 34238
FECT 34233
VECU 34231
NEPE 34226
STOR 34222
HAQU 34222
NTRO 34192
ATRI 34120
UTEN 34086
RANG 34084
NVIR 34081
ÉESP 34070
USSE 34057
IVIT 34033
NPEU 34016
SLAP 34007
ESOI 34005
GINE 33990
NLES 33978
BLIC 33950
DESB 33944
REMA 33941
MUNI 33940
UTEU 33937
SOIT 33914
CHAQ 33909
RMIN 33899
LAUT 33894
IERR 33883
ACCO 33874
LELA 33842
ETDU 33828
FACE 33820
ETSO 33794
HEUR 33767
ÉVOL 33744
VIRO 33735
LASU 33725
ONSP 33719
ESIL 33702
DERÉ 33701
UNEV 33682
RLEM 33650
TANC 33628
ETEM 33610
ESIT 33605
NSEN 33591
ASDE 33569
SPRE 33560
ÉCOU 33551
PROT 33522
LLAG 33522
SESA 33502
TICI 33476
IEND 33459
ASSO 33451
LADÉ 33442
UENC 33438
UEDU 33426
TEEN 33388
DUPA 33374
SDEV 33362
VERN 33346
OCIÉ 33332
ÉEEN 33310
NTDÉ 33305
RIER 33303
ARAC 33273
RITI 33268
TARD 33219
EIGN 33183
RCON 33132
SIDÉ 33118
HANT 33079
SUCC 33064
FFET 33063
CALE 33058
EURA 33046
TENU 33045
EUXD 33023
SELO 33013
ENTQ 33012
TSES 33002
OSSI 32978
DÉPA 32955
ALEN 32946
RIES 32941
ECEL 32916
TIFI 32859
ONPO 32803
NSPO 32760
CULI 32757
TALL 32743
ESGR 32736
PÈRE 32705
DEFO 32688
TUTI 32683
ONSS 32667
REES 32647
ESME 32628
TELA 32617
NDEN 32611
URET 32596
ENTT 32586
ITER 32567
IMIT 32562
QUIN 32556
NGER 32521
ONSU 32514
EFUT 32492
MELE 32490
ENPA 32487
RTIR 32483
BORD 32426
ÉCOL 32393
PIER 32376
DURA 32294
UMON 32288
RTEM 32286
GEME 32276
ONPE 32271
TTER 32265
USTA 32219
ILDE 32204
OUSS 32203
ACTE 32180
NDIS 32146
RSDU 32141
MEMB 32132
ABOR 32129
AFOR 32120
EDUP 32115
BOUR 32113
VENU 32103
TIÈR 32078
RÉCI 32040
HANG 32031
SDEF 32021
ESCR 32010
SONC 32007
PEDE 31996
ÀUNE 31990
ANTC 31973
CIEL 31951
SAUX 31938
ISET 31931
ONTC 31920
EVIL 31917
DÉCI 31886
NSEM 31882
NCEP 31879
DESV 31878
ERSD 31837
YSTÈ 31824
ECOR 31823
LEEN 31818
LESH 31806
NSUI 31799
ONPA 31784
RMAN 31750
PARS 31734
MEUN 31732
ACTU 31723
PASD 31704
ECTU 31700
EMIN 31699
PALE 31698
LESN 31684
CARR 31681
SEIL 31673
NÉTA 31673
SUNI 31667
PENS 31642
TÉES 31637
ANDS 31635
DRES 31625
TRER 31608
APPO 31606
ILSA 31604
LITA 31598
MOYE 31581
ITQU 31538
LESG 31537
NCEN 31519
BERT 31505
AITU 31503
ENTM 31484
NESS 31480
NOTA 31474
UCON 31472
NCOU 31434
OUCH 31433
ONAU 31433
UEME 31418
ECEN 31412
LEGR 31399
SÉRI 31397
UIDE 31391
CORD 31389
OISD 31384
UATR 31382
LEDA 31330
ÀLAC 31330
NTIO 31328
TREN 31309
ULTU 31258
GLIS 31253
EMPO 31252
RÉPA 31241
SCEN 31236
SDEN 31228
NTIL 31178
UNEN 31177
GARD 31176
ONFI 31171
RECE 31169
ESTT 31168
VRES 31084
QUUN 31033
OFFI 31030
CARA 31017
ARIA 31011
LTUR 31006
DEPE 30963
ÉSPA 30955
LAVE 30914
OMPR 30912
UESO 30910
SONE 30896
NTPL 30867
OLUT 30866
CHED 30863
NESA 30853
DESL 30825
NDUS 30812
FORC 30812
MPLA 30784
ÉESE 30779
ÀLAF 30729
EREC 30719
TÈME 30705
SITÉ 30702
DIEN 30687
OMBA 30681
VICE 30671
AÎTR 30657
EENC 30647
NVER 30631
URDU 30613
ODUC 30612
ICES 30574
SAVO 30570
RICH 30537
DESU 30534
SÉLE 30520
UVOI 30514
ITLA 30510
UESA 30492
SCAR 30483
OUVO 30465
ONSC 30432
TEQU 30426
SLEM 30420
STÈM 30416
MMER 30414
ENAT 30381
ESEX 30366
ÉRIC 30358
RIED 30342
ŒUVR 30341
ORTS 30334
ESEC 30306
ETQU 30297
SETS 30294
ARDI 30287
LASE 30271
LIVR 30268
SAPR 30261
VENI 30249
ULIE 30228
YANT 30208
ILNE 30189
DEBA 30187
SESS 30179
UNIS 30171
ÈMES 30134
ITUE 30126
NEPO 30111
SLAR 30043
LIÈR 30037
TIVI 30025
ANTÀ 30015
RENA 29998
INAT 29984
ADES 29981
FILM 29946
TESL 29943
SOUR 29925
RLAS 29918
ENPL 29895
PARF 29827
ARTD 29820
LESQ 29813
ENLE 29803
URSO 29789
ERDA 29738
DEQU 29720
AUJO 29715
ENET 29703
RNES 29687
ELIE 29675
SAIT 29673
NITI 29647
SALL 29640
IGNA 29637
ESMI 29635
DEGR 29622
SESC 29608
MINA 29598
DEFR 29593
ATRE 29588
IVEA 29582
SCIE 29560
ROYA 29560
TIEL 29545
OPPE 29534
NTTO 29517
TRAL 29490
ECHN 29484
SURU 29475
OURU 29473
ORDE 29472
SENF 29469
REIN 29465
ÉGLI 29459
NSIQ 29429
ARMÉ 29420
SPÉC 29398
ERAU 29368
ORIT 29363
LICA 29336
EPOR 29335
OUJO 29333
TAPP 29298
OMAI 29284
UALI 29282
SLEP 29235
OMMÉ 29212
ESHA 29202
TERD 29196
LASA 29184
ÈSDE 29183
DETE 29183
CEAU 29183
SDIF 29160
ÉCHA 29114
ILRE 29104
RSET 29089
EANN 29061
POQU 29053
NERE 29048
MODE 29041
NANC 29036
TOUJ 29026
RNAT 28985
EUDE 28933
UITS 28908
LARI 28883
ÉPOQ 28883
SAVA 28881
LUID 28875
EAUP 28836
ISSO 28829
NNER 28815
SEDÉ 28782
ROGR 28779
TESA 28769
SSIT 28768
SMAR 28760
NATU 28758
ACOU 28750
ORAT 28732
TDEN 28726
TTRA 28709
IERE 28688
ILIE 28658
ISEE 28649
UILS 28627
EFIL 28618
SPEU 28611
IREP 28599
LABO 28559
QUIT 28537
ERMA 28535
MPTE 28532
RIEL 28528
ONTS 28466
ERRA 28440
TRET 28418
PION 28385
IEET 28377
CESE 28324
FEMM 28303
MERC 28269
ÉTAN 28268
UNAU 28264
TEUN 28257
ESAM 28248
ANNE 28236
ONLA 28229
TÉSD 28228
ETRE 28227
RELL 28193
SEIG 28180
ERQU 28180
PÉCI 28146
VITE 28145
CROI 28137
AMPI 28137
RCHI 28117
TLAR 28097
TLEM 28095
PITA 28073
EUXC 28073
EENP 28069
QUID 28036
LIMI 28035
IANT 28034
EFON 28031
LEDO 28012
EELL 27989
HIQU 27986
LAPE 27968
DOIT 27962
JEAN 27959
TROP 27932
GOUV 27922
EUXP 27919
MESU 27915
CHEV 27874
SEEN 27871
OBJE 27871
LLEL 27856
ELIG 27842
TLEU 27829
OMDE 27816
IVEM 27801
ETDA 27799
AISD 27763
AITÉ 27757
UIES 27719
ESPI 27707
PROG 27701
LÉME 27694
EETP 27629
CORP 27629
IREA 27612
PEUV 27607
ITAT 27595
DUCA 27590
AGUE 27577
TDER 27569
URNA 27566
SJOU 27545
URDH 27534
UILA 27497
NEFO 27487
ÎTRE 27486
ALLA 27484
NEMA 27469
SLEN 27458
CEET 27439
LOCA 27427
MMED 27406
ESBA 27390
NDON 27389
ARIT 27362
NAVE 27338
RAIR 27318
LATR 27316
DHUI 27282
UNEE 27251
IONI 27248
SÉPA 27237
CONV 27234
URTO 27190
TERA 27184
EDUM 27174
SESO 27173
INET 27169
INEE 27156
TRIE 27150
EDÉP 27120
LEXI 27112
SEPT 27105
ESRA 27102
INAN 27098
REIL 27086
ENAI 27067
VECD 27062
MPRE 27043
EVAN 27043
UISL 27027
SQUÀ 27026
NNOM 27017
URQU 26994
URRE 26982
CIÉT 26980
LEPE 26978
UNEL 26973
CIER 26970
PELÉ 26961
TESP 26941
PARM 26938
RRAI 26931
OLLE 26911
EPTE 26907
CEDU 26888
TINE 26858
EREP 26839
OLES 26838
RDHU 26837
MEIL 26792
NESP 26779
NONC 26776
CHEL 26776
RDRE 26745
OUEU 26735
EDEG 26726
LIND 26725
ESVO 26725
ESÀL 26713
RQUI 26705
SENP 26700
ESFR 26690
TECO 26683
IONT 26683
EDUR 26682
SLAM 26668
ICAL 26659
SELL 26642
LUNI 26640
ORTD 26630
CONO 26626
PROB 26604
OGIQ 26595
ROVI 26584
ANSE 26584
AUNE 26580
REMO 26560
NTDI 26545
ÉRIT 26535
IREM 26530
PELL 26523
AMEN 26523
NEPR 26522
ÈCLE 26517
URSS 26508
ESFI 26494
SIÈC 26486
IÈCL 26485
TIST 26481
ECOL 26469
ÈREE 26468
CART 26467
NTSS 26458
RRIV 26457
UPER 26449
OUES 26440
DÉFI 26438
TAMM 26421
CILE 26419
ITAU 26418
ALBU 26383
TYPE 26379
RTER 26366
VICT 26344
CCÈS 26342
URSU 26303
RVIC 26289
UPES 26286
DEBO 26241
ANGU 26207
ACES 26192
TECT 26191
ADMI 26191
ENSO 26182
ÉPEN 26177
ÉCOM 26170
NCHA 26145
SERL 26111
NTAG 26108
TPRÉ 26097
PRIM 26092
SETA 26088
LERO 26086
RLAR 26080
SSAG 26077
OUVA 26070
ÉFÉR 26068
FFEC 26027
LEVI 26021
AISI 26015
ERVA 26007
DESG 25968
IFIE 25948
COUL 25925
RÉFÉ 25922
ESÉC 25911
ERON 25902
ESÉL 25872
RPOU 25870
ESCI 25867
ALEE 25851
TEPA 25838
IDÉR 25817
OTAM 25803
INTS 25801
ENDI 25794
ISSU 25786
ERDU 25786
OURP 25783
EJEU 25781
AUXP 25777
SCHE 25774
NSIO 25773
LAPP 25768
NPLU 25763
ROJE 25761
ÉRIO 25743
CTIF 25735
ARAI 25723
PROJ 25711
TEXT 25709
AUMO 25709
UEIL 25687
ESUN 25657
LBUM 25652
ISCO 25639
ILSS 25635
CRÉA 25629
APIT 25616
RATE 25602
NTÉG 25585
LAME 25585
ESFA 25557
ENFR 25556
UDEL 25510
ERAP 25484
UEDA 25475
VARI 25471
EETA 25468
AMOR 25468
TFAI 25456
TTED 25446
MENC 25445
RSIT 25421
URSC 25419
ÉTEN 25412
HARG 25404
LEDI 25403
TINT 25397
OURG 25395
GUES 25392
NELA 25367
POST 25333
DÉMO 25329
LARG 25318
SETP 25307
OUSE 25307
ESUI 25287
BAND 25258
IEDU 25245
ENIL 25225
RSIO 25221
EINE 25219
TTRÈ 25207
OUDE 25207
NNED 25191
IERL 25187
URPR 25186
DÉSI 25183
MITÉ 25179
RENO 25177
IODE 25168
URAI 25165
UNOR 25146
OURI 25140
SEET 25106
TCHA 25105
AGEE 25096
SIND 25089
DÉPE 25089
SDEB 25077
BLAN 25073
ONNO 25053
LACR 25037
ESLO 25035
SÉQU 25028
INEN 25024
TEFO 24995
NISA 24985
BUTD 24985
LINE 24983
CHEM 24982
EANS 24978
CHIN 24976
OPOS 24972
NDAI 24967
DUCH 24958
NSQU 24957
RIOD 24941
SCES 24931
FURE 24920
SDIS 24878
EAPP 24875
ENCH 24868
ELAI 24857
UTOU 24855
ALLI 24853
QUAL 24847
PLIQ 24830
AUXA 24823
SSIL 24819
TLAS 24816
ENAV 24809
OUTI 24807
EMIL 24799
MMEU 24794
MAGE 24783
ISAU 24760
TSEN 24757
CIPE 24713
FESS 24709
ÀLAP 24690
SAIR 24683
IALI 24683
FILS 24671
ABRI 24669
ESIM 24659
ECTR 24654
SULT 24652
ANIM 24650
BATT 24649
NEEN 24633
TTEI 24610
URNE 24609
DUNO 24607
IVEN 24602
RESU 24598
RNEM 24591
CHEZ 24589
AYAN 24581
TITE 24569
ETPA 24541
EILS 24541
SACT 24535
SETC 24529
AUCH 24510
OMAN 24506
OITE 24501
MMAN 24500
ENLA 24497
NCEL 24481
SFRA 24470
RMED 24463
UMAI 24458
EETC 24452
IRLE 24440
ETSA 24438
ILFA 24436
UNEB 24420
DEAU 24412
LETT 24406
TIFS 24385
TEDA 24369
MESE 24359
ENPR 24357
DERA 24343
NEFF 24342
SDUC 24338
APLA 24320
IVIS 24308
AUXE 24298
MPLI 24294
INTR 24289
EENS 24276
UREU 24240
GNES 24233
ONIN 24202
ARCE 24155
ACED 24153
MEUR 24149
RITE 24145
AUCU 24126
ILCO 24114
ARIE 24080
EURC 24076
VIER 24070
CULE 24065
RAPI 24048
PEME 24048
ITUT 24042
MOIS 24035
SLAN 24032
UNPR 24022
TRAC 24014
QUIC 24010
DRED 24006
UEQU 24005
CANA 23997
SAUS 23991
TUDI 23985
LINS 23981
EDUS 23981
ULIÈ 23968
ASSÉ 23951
RDIN 23950
NDIT 23942
RLEU 23940
AUPR 23938
BALL 23913
ONRE 23907
NFIN 23897
EPTI 23894
PEIN 23891
AUXC 23871
INER 23869
RGEN 23865
SASS 23863
RPAR 23862
EUXA 23858
UCOM 23855
NTIT 23854
SFON 23852
SUPP 23846
INQU 23845
ELER 23845
NAVA 23844
APER 23827
ESSÉ 23819
UNEG 23816
ICON 23795
ARRA 23786
CHAP 23780
NSUR 23769
NETD 23749
SDÉC 23723
UXET 23719
ULEU 23717
LERÉ 23716
ÀSON 23707
IOGR 23683
ERÉS 23680
ÉDEC 23678
DESH 23675
ORDR 23671
LAFR 23671
SACR 23670
ODES 23661
RIVE 23660
ASTR 23647
ENMA 23643
AIDE 23641
OTES 23625
FRON 23624
UEEN 23611
IDEM 23598
MPIO 23596
ESTM 23595
LLAN 23593
QUAR 23584
ISIL 23584
ILEN 23581
LDES 23578
BASE 23577
TIRD 23572
RIVÉ 23568
UNEÉ 23564
AVAL 23544
EBAS 23516
PATI 23493
EVAL 23468
TDED 23463
RSEN 23463
ERTI 23458
ECIN 23450
SCET 23447
DUPR 23444
UCUN 23414
OCCU 23414
IDED 23402
DUMA 23401
VECS 23399
ARES 23390
ÉCLA 23380
RESQ 23379
ÀDES 23378
LEMP 23370
FIQU 23362
RTED 23352
LLON 23346
BLEM 23319
ANTO 23317
PHIL 23316
TÉDU 23297
SOUT 23290
SOMM 23276
POUS 23271
URCO 23266
SPLA 23262
ATCH 23262
ELUN 23258
TESO 23257
PIDE 23245
NTTR 23240
ESRO 23233
EPOL 23218
OCAL 23211
TTEP 23201
DÉRA 23186
TRON 23178
LANO 23167
EURT 23164
SCOL 23153
ENUE 23146
UVAI 23141
ECDE 23140
ÊMES 23133
RRIT 23130
RERE 23126
ENTF 23125
AITC 23125
ELDE 23111
ENEF 23098
INSE 23087
ICTI 23087
APAS 23084
UREE 23081
NTMA 23079
NCEA 23076
RÉSU 23070
NITÉ 23065
UTER 23033
CORR 23016
LAGR 23012
UICO 23005
ONTO 22984
ORIQ 22972
TLAM 22971
MOUR 22965
RÉES 22956
LAGU 22948
ENSA 22944
VAIE 22941
NETL 22932
ÉTÉD 22931
SSUS 22910
NGLA 22910
ROUT 22896
ÉTAB 22893
ALET 22888
RERL 22883
LUSP 22879
INEL 22877
CLUB 22877
POND 22868
RLAN 22866
SURT 22861
IONM 22861
RAMM 22857
ENVO 22853
NGLE 22834
CHEF 22833
ORIS 22829
ASSU 22821
OPÉR 22817
EGÉN 22812
ABLI 22812
ÉCES 22789
TERE 22787
ÉTIQ 22777
NTEU 22772
CINQ 22771
MBAT 22768
ITEU 22765
ROFE 22764
ÉEDA 22749
RCHA 22747
ESEU 22745
TENI 22744
NEES 22743
NTSP 22741
OFES 22736
ENFO 22729
ISEL 22722
LORI 22713
AISC 22692
LDEL 22680
INSP 22678
UNEI 22677
EREL 22677
DIQU 22668
TDÉC 22666
REVI 22643
ETES 22643
OIRS 22641
DIVE 22626
REVE 22619
TÉLÉ 22617
ATER 22611
ESTÀ 22582
ANAL 22581
LANA 22571
RESL 22557
DEDO 22541
ANDR 22520
RICE 22518
RÉAT 22515
NOUS 22506
ERSU 22505
HUMA 22490
ANDO 22468
OUBL 22467
ÉTRA 22438
REFO 22420
OJET 22416
NSCO 22413
GRAM 22403
METD 22391
CHOI 22384
NIFI 22381
ACRÉ 22380
LETI 22372
INFO 22362
ISÉS 22361
PLES 22342
TUNP 22325
ATDE 22313
NNAG 22310
IELE 22305
RSUR 22303
SMON 22297
UUNE 22294
DICA 22294
APID 22291
ANSF 22279
EROU 22275
ORTÉ 22272
RIÉT 22262
EÀUN 22230
REUR 22224
CHÂT 22214
ÉCIS 22212
VOIE 22196
EXTR 22177
NGRA 22154
UEPA 22149
IERA 22139
GESD 22137
ÉFIN 22137
ITUD 22104
TISS 22055
RALI 22053
DERO 22051
SSIS 22044
OMEN 22043
CAMP 22037
IPER 22033
ITEC 22009
LÉQU 21992
STIO 21979
ÉCID 21977
ATAI 21966
TUÉE 21962
EVIN 21956
UNIC 21953
SCUL 21933
PERD 21923
CCUP 21922
UESP 21913
INSC 21894
CHNI 21880
EMIS 21872
ORPS 21869
USED 21858
ISCE 21840
TÉLE 21839
ANNI 21832
ULEM 21829
RSLA 21824
LÉCO 21810
ARME 21809
ETRÈ 21791