EINE 3692344
NDER 2624230
ICHT 2401684
CHEN 2159090
SCHE 2058078
ENDE 1808194
LICH 1795107
SICH 1669502
ERDE 1585800
INDE 1552055
NDEN 1446182
RDEN 1402880
NDIE 1363088
ISCH 1347060
ICHE 1334990
AUCH 1320389
ERST 1262306
SEIN 1248096
NTER 1230100
NGEN 1175742
NICH 1164468
EITE 1151669
ANDE 1127472
TSCH 1084653
EDER 1064243
DIES 1042961
NACH 1034475
DERS 1024629
ESCH 1022874
ÜBER 1013830
EREI 1003439
CHTE 974771
UNDE 953887
EICH 952580
NUND 952127
INER 951293
ERUN 939843
ENUN 936788
DASS 935177
TEIN 921075
NSCH 912795
NEIN 910519
SCHA 898480
TION 895741
ENDI 892448
RSCH 881504
CHER 874466
UNGE 874390
EGEN 871442
REIN 869710
STEN 868971
SCHL 860900
ALLE 851770
INEN 849743
DERE 830412
ERTE 830202
EREN 816530
RDIE 812858
ANGE 796217
UNTE 794394
NDES 794170
ISTE 791954
IERT 778832
IGEN 765050
SSEN 751898
AUFD 746122
EIDE 745558
UNGS 735658
RUNG 735018
ERGE 720658
WERD 709437
STER 708955
JAHR 692452
HABE 685111
RUND 683916
INEM 681226
TDER 679783
IEDE 668304
ENAU 668085
ERIN 667676
CHEI 665245
ENBE 662629
EBEN 656357
LLEN 655071
ABEN 654154
DERA 651846
ENGE 651504
SAGT 648788
ERNE 647952
TERN 642791
RICH 636581
AHRE 636521
ABER 635294
ERSC 632025
TUNG 631173
IESE 630237
ENSI 629447
RDER 626824
ELLE 620089
ERBE 614065
ERDI 608825
EDIE 607495
GEND 606586
DERB 605223
ENST 603775
RSTE 599394
TLIC 598915
ERAU 596435
ESTE 594495
WEIT 594009
TDIE 592265
UNDD 592236
INGE 591893
BEID 588513
DEUT 585227
CHAF 579142
GEGE 578523
MMEN 575849
TELL 575077
HAFT 572047
SIND 572013
WIRD 571658
STEL 571246
ITER 569826
NVER 561445
LAND 557615
NOCH 554372
EINS 542364
ENER 540620
RBEI 540016
HEIN 539071
DERN 538495
TENS 537841
BERE 537838
HREN 537678
VERS 537163
EEIN 535789
FÜRD 534870
ACHT 533997
ASSE 532358
RECH 527621
SPIE 527075
ENEN 527005
EIST 519739
TEND 519644
ONDE 518425
SCHW 514227
TEIL 513871
TUND 511995
ERHA 511417
EURO 509827
ENSC 506424
NNEN 505517
EITS 504737
ENIN 503937
GESC 503110
IERE 499164
CHDE 498510
INTE 498470
PIEL 498075
ENWI 496726
REIT 493025
ZEIT 489460
AGTE 487609
KOMM 486050
ORDE 484624
EHEN 484557
RVER 481805
UFDE 480678
ETZT 477187
TERS 476258
ZENT 473365
ATTE 472553
ENZU 469574
MEIN 469536
ENDA 466903
ITDE 466647
ERWE 464860
IDEN 463460
ATIO 463038
MITD 458288
AGEN 457323
IELE 455879
ENWE 453181
ALTE 452152
GENE 451380
OMME 449828
NIST 449400
UTSC 448343
SCHU 448291
ENHA 446700
URDE 446045
DIEN 445424
DENS 441051
ICHD 440100
ERAN 437573
ARBE 437331
LLER 434983
BEIT 433809
EUTS 432315
DERD 431975
UNGD 430273
MITT 429741
DERT 429156
CHDI 427019
RTEN 425648
ESSE 425286
MEHR 424438
STAN 424212
ITTE 423670
EVER 423654
HDIE 423617
CHTS 423473
DERG 423385
ENEI 421367
LTEN 419623
LUNG 419169
IEBE 417049
STEI 413735
SCHI 413434
WURD 412900
ENVO 411723
ONEN 411533
CHWE 408405
EUND 407331
IONE 407191
HMEN 406774
DERF 406035
BUND 403838
ENVE 402903
ERLI 402516
NDAS 401757
ERVE 400416
ACHE 400006
DERK 399843
RSTA 399622
ERER 399123
ENAN 398734
FAHR 398372
SOLL 397082
NTEN 396833
OLLE 396605
FFEN 395883
IEGE 395423
ESIC 394817
UNDS 393616
HATT 392823
TAND 391572
ROZE 391409
PROZ 390480
BERD 389387
NEHM 388102
TDAS 387849
DERV 386868
NGDE 385686
REIC 384487
INES 382285
NGES 381624
WIED 380823
URCH 380794
EIND 380554
SDIE 380436
ENTE 379838
DENN 378001
ARTE 376704
DURC 374396
DIEB 373898
ERNA 373896
NMIT 373661
ZWEI 373597
NSTA 373393
HEND 371855
ITEN 371346
EIGE 371219
TIGE 368204
DERM 367052
INDI 365898
EHME 365607
TERE 365352
DENE 364554
IHRE 363472
ERMI 362624
NAUF 362578
HAND 362131
GEST 362054
DIEA 361931
NAUS 361051
SDER 360292
KEIN 360158
ERRE 359510
ENMI 359501
CHAU 359374
RIGE 358394
ERVO 356662
TEDE 354742
HALT 354550
NSEI 351975
REIS 351535
NGER 351500
NWIR 350982
RÜCK 349739
SVER 349683
EISE 349672
OZEN 349551
KANN 349359
RAUS 349310
HAUS 349126
ENSE 348375
ERSI 348295
NDDE 347595
VERL 344408
TTEN 344177
ERWA 343500
UCHD 343499
DERW 343107
NSIC 342867
RAUF 342446
ILLI 341750
NEUE 341736
NNTE 341217
NERS 339860
ICHA 339071
TWER 338371
CHLA 338231
ENTS 336539
ENSO 336103
DERU 335391
ERSE 334959
KÖNN 333335
DEND 332953
STRA 332574
ERLE 330937
LEIN 329826
ODER 329775
OCHE 329642
MANN 329164
MMER 328301
ESTA 327996
HRER 327306
TENA 325980
ERIC 325396
CHIN 324645
IDER 322800
AUFE 322800
CHNI 322326
CHST 320538
AUSD 318957
ERTR 318621
CHTI 318397
IGER 317675
ENSA 315971
DENT 315479
ÜRDI 314470
FALL 313582
CHNE 312719
STAG 312261
DIEE 311941
EING 311801
SETZ 311715
GENS 308476
TZEN 306752
REND 306330
GANG 305041
RMIT 304966
BEND 304622
SCHÄ 303809
MACH 303657
AUSG 303204
SSCH 303092
SCHR 302489
SEIT 302362
GENA 301739
TSIC 301708
GEBE 300996
LANG 300965
STEH 300787
DERP 300342
AKTI 299634
MENS 299566
TAUF 298655
INAN 298173
EDEN 297198
ECHT 296598
GDER 295970
INNE 295935
DERZ 295012
AMIT 293814
ERZE 293694
ABEI 293382
ERMA 292900
RDAS 292880
DENA 291237
VIEL 290891
BEST 290357
HEIT 289815
SCHO 289711
FÜHR 289565
VERB 289451
ERWI 288989
LEIC 288941
ENTA 288428
BEIM 288373
TISC 288272
RTEI 286850
GUNG 285428
FOLG 284857
TIER 284214
NSTE 283751
UNKT 283401
DERL 283093
MENT 282660
LAGE 282348
RDEM 280768
ETER 280678
SSER 280309
ERDA 280164
DENK 279641
VOND 278982
ESEN 278885
ERLA 278172
RIST 278075
AUSS 277544
SIST 277537
TERD 277327
DDIE 276555
INEI 276439
MARK 276357
IEIN 275970
DERH 275609
DAMI 274697
MILL 274634
ATEN 273791
VORS 273682
NVON 273680
EMIT 273452
IERU 273208
UCHE 273000
HTEN 272887
RGER 272189
DERI 270830
EVON 270743
POLI 270206
EAUF 269669
ISTD 268340
NEND 267664
IMME 266863
TSEI 266801
GLIC 265838
TESI 264384
ERAL 262406
ERSP 262219
MITE 261848
USDE 261624
GESE 260930
BERL 259867
BETR 259829
TVER 259687
NKEN 259680
NIND 258980
NUNG 258780
CHSE 258163
ENNE 258045
DIEG 258006
NSAG 257921
SEND 256995
SGES 256838
ÜRDE 256740
GABE 255191
ERSO 255128
SUND 254962
DERR 254711
ITEI 254594
DABE 254131
ERZU 254104
CHUN 253248
DANN 252506
ICHS 252334
ETEN 252092
VERT 251855
JÄHR 251264
NSIE 250796
NBER 250683
DENB 250571
LASS 250072
FREI 249822
CHRI 249617
DUNG 249372
DEIN 248627
LLTE 248112
BERG 247947
WARE 247704
DIEK 247079
TRAG 246639
DING 246528
MEND 246250
NNER 245608
HDER 245550
ERKA 244912
ENEU 244633
TERI 244623
ÄNDE 244608
RAUC 244009
DDER 243851
RNEH 243743
EMEI 243514
SUCH 242426
ASSD 242397
NENS 242156
ENKO 242070
ICHN 241439
SSTE 241311
DIEF 241029
EUER 240766
ERFA 240725
ERKE 240707
LETZ 240695
NTAG 240316
HENS 240236
NDDI 239649
USGE 239477
DIEM 239000
HRIG 238637
BERI 238161
ERPR 236168
IONS 234961
INGS 234759
RAGE 234705
STUN 234633
EUTE 234509
WEIS 234377
GROß 234304
CHEF 233893
WELT 233800
RLIN 233762
MINI 233532
RZEI 233099
NWER 233057
ÄHRI 232845
INIS 232537
NVOR 232380
SOND 232350
EAUS 232225
STAR 231705
DENW 231506
ERBA 231337
ÜSSE 231295
EINT 230703
ERNI 230303
RGES 230193
WOCH 229934
EDAS 229289
ERES 229110
KEIT 228550
MUSS 228130
ACHD 226916
EINI 226800
RING 226596
DASI 226515
GEME 226479
ERHE 226375
TENW 226104
EVOR 225805
ÖNNE 225333
EMAN 225285
DASG 224731
INST 224645
CHDA 224536
STAD 224052
NENE 223830
ANDI 223637
ECHE 223318
LDER 223279
CHLI 223162
ISTI 223143
CHMI 222765
HTIG 222738
ESEI 222002
DIED 221790
ELTE 221633
TMIT 221215
FINA 221159
RALS 220750
GERI 220633
NDEL 220370
NFÜR 220369
ERKL 220307
TZTE 219759
TETE 219624
AUFS 219315
UNDA 219295
TEDI 219212
TENE 218266
CHES 217856
NISC 217779
BERN 217594
TDEM 217178
LERD 216903
RAND 216406
FDER 216176
ISSE 215765
ERGA 215765
VERG 215355
KTIO 214988
DERJ 214927
RTSC 214842
NÜBE 214793
STRE 214686
AMME 214349
AUFG 214147
ENMA 214034
MDIE 214021
AREN 213822
RITT 213664
ERME 213485
ENTI 213418
DIER 213356
ONZE 213160
RSEI 213132
ERSA 213124
ESER 212893
ZAHL 212530
SCHN 212493
EINF 211928
GLEI 211619
TENI 211338
WENN 211247
LAUF 210850
NEUR 210837
ONAL 210823
ORGE 210755
CHON 210418
BENS 210101
CHGE 209922
EDES 209444
BERA 209339
ANNT 209173
ERFO 208718
IENS 208623
ENFÜ 208560
LEGE 208422
NHAT 208184
GEWI 207970
TENB 207937
TRIE 207621
RIND 207595
RVOR 207510
TERA 207383
ACHS 207210
FDIE 207083
REGI 207080
NBEI 206766
BANK 206482
RESS 205887
ECHN 205738
ITZE 203970
OFFE 203571
KAUF 203440
ENWA 203390
RGAN 203317
EMEN 203264
ERKO 203197
SIER 203110
AUTO 202804
CHUL 202532
NDEM 202439
LTER 202349
RWAR 202290
SATZ 202103
CHBE 202017
TDEN 201733
BILD 201685
ENRE 201672
ANKE 201583
NPRO 201452
KONZ 201297
DIEV 200917
EMBE 200615
DIEP 200507
IONA 200441
SPRE 200378
TZUN 199951
GENU 199735
RDIN 199327
VERK 199189
NDEI 199103
RACH 198976
CHTD 198961
ENTR 198723
PORT 198716
ENTL 198498
WILL 198437
HUNG 198418
ENIM 198410
SAMM 198338
LEBE 198324
RANK 198265
HTER 198135
PUNK 198081
MBER 197995
ONNT 197682
AUER 197556
HALB 197419
NSOL 197204
ERGR 197099
THAT 196939
EINB 196926
SPRO 196763
NDUN 196495
WIRT 196202
NNIC 196130
CHAN 196049
TADT 195740
ENKA 194628
STIM 194561
UFDI 194404
CHTA 194387
NIGE 194352
SENS 194330
ENNA 194234
BURG 193982
MEIS 193297
GIER 193127
TIMM 192767
ENPR 192761
RGEN 192689
ZUNG 192590
ESTI 192575
CHÄF 192457
RSIC 192143
TTEL 191932
RNIC 191930
ZIEL 191621
NDET 191531
TEHE 191472
RDES 191367
TIST 190612
WERT 190426
NGEB 190357
ELLT 190314
HÄFT 190290
NENT 190184
FORM 190044
ARKT 189916
TAUS 189903
CHIE 189820
UNDM 189626
EBER 189580
DENV 189456
ICHI 188651
VIER 188582
ITUN 188286
EITA 188117
TVON 187643
ERBR 187553
NWIE 187412
SSIC 187211
EGES 186718
TFÜR 186649
PART 186467
TENU 186306
NDEU 185979
NANZ 185593
BERS 185478
AUSE 185383
ENNI 185378
GRUN 185308
NDIG 184912
ERFÜ 184884
ESIN 184664
CHWI 184615
EKOM 184606
PRÄS 184398
RALL 184368
FEIN 184310
EFÜR 183979
ENBA 183973
ENFA 183856
SITZ 183721
IGTE 183571
GEHE 183358
NGEL 183000
ASSI 182916
ANIS 182837
FEST 182621
EWER 182456
TIND 182273
ENIS 182234
ENAB 182169
ETWA 182016
EINZ 181921
DEST 181299
FRAG 180866
AHME 180750
TWOR 180665
EINM 180415
GENT 180373
ANDS 180293
UCHT 180047
HLEN 179973
IRTS 179795
SMIT 179423
GESA 179417
TEST 179222
TAGE 178898
HERS 178818
BESC 178758
DASE 178698
USST 178482
DASW 178431
MITS 178208
DENM 178119
HLAN 177982
LLES 177771
USCH 177665
DREI 177618
RIEB 177587
UNGA 177559
SLAN 177518
ENSP 177401
AUßE 177237
TTER 176953
HTET 176916
ERAT 176691
EIBE 176632
EBEI 176540
AMEN 176410
PLAT 176290
NZER 176237
GENW 176089
RBER 175942
ENAC 175909
ENHE 175845
SSEI 175611
UNDI 175394
STAA 174815
OLLT 174762
CHTU 174700
SEHE 174636
RWEI 174410
HENA 174061
ASIS 173963
ESPR 173841
ISTA 173619
DIEW 173586
TENM 173301
ENTW 173127
TAAT 173034
IETE 172743
UNDB 172614
EINA 172543
ONNE 172524
NSER 172457
OSTE 172365
RHEI 171931
EITU 171874
NAHM 171786
DESS 171619
KIND 171525
LION 171475
DSCH 171251
LITI 171118
RTRA 171112
RVON 171088
UßER 171006
DOCH 170761
TENT 170745
UNDW 170663
UNGV 170604
ENAL 170444
FRAN 170437
RÜBE 170368
HNIC 170282
GVON 169801
ERHI 169709
ENWO 169630
WOLL 169629
WORD 169486
CKEN 169482
ERFR 169454
NTLI 169258
MÜSS 168954
KUND 168628
LLIO 168321
BEIS 168244
NKÖN 167961
GENI 167429
DENG 167247
PREC 167148
ENUM 166601
HRUN 166416
DASB 166405
ENÜB 166222
STIE 166124
LEIT 166120
ANTE 166007
RENT 165802
HRES 165642
RGEB 165455
DENU 164880
NTEI 164832
HENE 164373
HTUN 164338
NDDA 164120
LLEI 164116
DENF 163950
ERIS 163885
ERNS 163600
OLGE 163557
NGVO 163245
ESAM 163139
NSTI 163067
ASCH 163004
NAND 162935
OBER 162923
TEER 162909
KLÄR 162730
ABGE 162654
GIBT 162562
HEIM 162478
WART 162225
NENA 162172
ESET 161993
NTSC 161992
RENZ 161960
STAT 161880
NIER 161678
GERA 161615
MVER 161582
RLIC 161554
LIEß 161336
VORD 161322
RERS 161180
ENZE 161156
IGUN 161137
TIVE 160920
ERBU 160809
NTRA 160785
GEIN 160566
CHZU 160380
GERE 160371
TENZ 160317
TREI 160105
SAMT 159961
WEIL 159844
RENS 159294
LEND 158948
ALEN 158861
HERA 158671
NSIN 158635
SVOR 158627
GDES 158624
WISC 158555
NATI 158294
ÖGLI 158251
HIND 158240
MÖGL 158070
SELB 158062
VERF 158028
ENME 157937
SAUF 157798
HSTE 157630
ASGE 156995
DIET 156813
UNDF 156788
SERE 156726
BLIC 156601
GUND 156478
AUFT 156417
ANDA 156402
TERH 156395
NJAH 156362
FDEM 155978
NWEI 155945
LIEG 155788
SWIR 155750
UFEN 155686
ICHB 155542
NHEI 155359
NNAC 155246
TENV 154964
HMIT 154843
ICHK 154651
AFTS 154534
NAUC 154431
SSDI 154372
IEAU 154221
HERE 154158
RNEU 154067
IESI 154014
ZEIG 153861
ESON 153819
INSA 153789
SION 153440
ROßE 153383
NERA 153096
NERG 152951
UGEN 152800
UFEI 152715
NEBE 152691
ELDE 152634
LTUN 152580
LSCH 152417
TWIR 152179
ARDE 152084
ESSI 151963
GESP 151841
UNGI 151660
VORA 151568
ENLA 151377
DIEI 151294
HSCH 151195
ENKÖ 151127
ZWIS 151099
RTUN 151068
IEST 151019
TNIC 150906
EGEL 150674
NFAL 150587
GELE 150166
CHKE 150136
ESTR 150125
FIND 150031
SIDE 149807
ÄNGE 149694
NCHE 149544
RMAN 149478
PREI 149083
DIEZ 148921
CHTM 148719
RAIN 148678
NALS 148596
ÄCHS 148403
ESHA 148354
VONM 148335
CHSC 148205
ELER 148134
RBES 148023
UNDH 147967
ALSE 147935
ORST 147919
ZUSA 147788
NSTR 147778
NDGE 147703
SEHR 147687
NKTE 147567
EWEI 147228
INSE 147227
HWER 147227
IEEI 147135
REIB 146810
NGUN 146723
TEAM 146522
ICHM 146492
EILE 146490
HENW 146482
SENT 146408
TENG 146356
HDAS 146093
HWEI 145954
EHRE 145852
EGIE 145795
DIEH 145612
RHAL 145558
NKON 145449
HEID 145427
ZIER 145255
ANNS 145212
DIEL 145043
UNDG 144569
GANZ 144525
LATZ 144481
DASA 144302
STRI 144284
SSIE 144174
OLIT 144119
OLLA 144045
INIG 144026
CHWA 144015
RDEU 143909
ENIG 143859
ITIS 143851
ZERN 143735
ERAB 143402
RREI 143304
STAL 143269
ZEUG 143070
TEDA 143053
NGST 143037
DLIC 142932
EZEI 142895
ICHW 142854
OHNE 142836
RANS 142783
WERK 142612
ITIO 142526
VONE 142467
HKEI 142035
IEDI 142010
NDAU 141681
SHAL 141643
WAHL 141415
OREN 141368
ÜRGE 141201
ITÄT 141135
VERE 141091
NHAB 141076
ERTA 140875
EUEN 140862
UROP 140831
ETTE 140569
UTEN 140338
ELEN 140281
ADEN 140271
RENA 140175
VERH 140146
RKLÄ 139973
NBES 139870
DENI 139514
RÄSI 139356
ÄSID 139301
USAM 139242
NWAR 139204
ENJA 139095
CHVO 138939
HATD 138909
UNSE 138782
RATE 138600
ENIC 138587
AMER 138516
NDBE 138164
RTET 137906
DEMS 137904
ESUN 137808
ILDE 137792
ZURÜ 137785
TEEI 137767
DASH 137740
TERT 137708
WALT 137572
ÜHRE 137401
IELT 137340
SHER 137296
STES 137280
NUNT 137055
ERND 136827
INVE 136784
BEWE 136653
MSTA 136575
VERW 136525
WEGE 136521
GTED 136496
EFRA 136490
SPOR 136381
ESGE 136306
EKAN 136184
FDEN 136155
FTEN 136084
CHIM 136024
LIGE 135858
HLIE 135848
JETZ 135667
FÜRE 135653
ERBI 135540
RFOL 135517
STEU 135427
FTIG 135388
INBE 135373
ENNO 135353
NDIN 135236
EIEN 135211
FACH 135188
GEWE 135171
ISEN 135168
RCHE 135013
KLEI 134990
URÜC 134989
NDRE 134954
RNAC 134908
GTEN 134621
SDEM 134531
VERA 134443
EWIN 134395
TENK 134366
WENI 134314
HREI 134027
TENF 133998
DESH 133882
HENU 133801
CHRE 133791
NFOR 133746
TERW 133731
LEIS 133641
LIST 133496
BEIE 133448
ERIM 133303
RUNT 133294
RAKT 133229
SERS 133225
EPRO 133092
MITA 132918
ERSU 132764
GRÜN 132701
ENLE 132669
RANG 132644
PLAN 132619
ICHG 132468
ETEI 132451
EINW 132345
EITI 132311
UCHI 132308
MMIT 132260
GEHT 132165
MITG 132143
EIEI 132128
RATI 132126
TIGT 132049
TERG 131930
KTEN 131768
TENH 131682
ELEG 131605
LBST 131574
RWIR 131463
UNDK 131445
CHLE 131423
BIET 131385
DASK 131335
TEUE 131266
ISZU 131184
SWEI 131146
GELD 130980
SVON 130959
SUNG 130938
MICH 130839
RBUN 130813
HENK 130800
ONTA 130793
EGER 130755
ESEM 130692
MALS 130462
IEßE 130462
EINH 130440
BESO 130229
STDE 130181
RHIN 130139
ATER 130113
JEDE 130110
NTWI 129878
IEVE 129760
FORD 129471
GENB 129448
NERE 129436
SAUS 129210
NGEG 129178
WÜRD 129140
NNOC 128895
ONST 128818
RWIE 128815
NALE 128776
SIEG 128709
MSCH 128693
TÄND 128670
ERTI 128589
SUNT 128586
UFGE 128505
RFÜR 128433
TERB 128430
RJAH 127965
MAND 127862
HEUT 127844
TECH 127823
CHTW 127823
ECHS 127712
RKEN 127660
ELBS 127641
HUND 127585
RAMM 127347
LÄND 127326
WIES 127276
IEFE 127030
UNDV 126982
DAZU 126836
NÄCH 126821
ANST 126789
WICK 126765
LIEB 126757
NERK 126730
ZUGE 126702
INSC 126691
ERRA 126582
TRAI 126526
ICHZ 126519
AUEN 126511
ITAL 126458
ALLS 126406
ERNO 126363
WIRK 126347
SACH 126260
NANG 126252
TALS 126226
ISIE 125816
OGRA 125755
EBES 125638
NMAL 125470
EENT 125440
RENN 125396
STÄN 125316
NDLI 125110
NDSC 125093
HLAG 125041
NKAN 124995
TEHT 124953
HAUP 124883
RHAT 124801
TAUC 124788
ORTE 124705
HAUF 124666
LUSS 124650
ERNU 124618
EGEB 124618
ASTE 124539
DENH 124502
RLAN 124301
UCHS 124296
LÄRT 124222
SDAS 124206
EHÖR 124200
PERS 124092
UELL 124074
WINN 123951
HIER 123870
ENKE 123840
ISTU 123823
AHLE 123773
TDES 123603
EUNT 123563
BISZ 123506
NDAN 123502
TERR 123471
TWEI 123437
SOWI 123430
VORG 123381
EINK 123298
GSTE 123295
ENGR 123202
THAB 123188
VOLL 123148
ECKE 123132
NELL 122920
SORG 122758
CHAL 122720
ANNE 122715
AUPT 122642
HENB 122486
INMA 122415
ARAU 122401
PROG 122400
INEA 122395
DARA 122343
ARKE 122189
RWER 122188
RPRO 122086
STAU 122037
GKEI 121937
REGE 121898
NZEI 121871
SPAR 121858
IENE 121837
HIED 121826
OSSE 121816
EHER 121792
SEIE 121683
ELAN 121608
EILT 121587
ENND 121564
OLIZ 121503
OWIE 121473
DASM 121457
BRAU 121449
IEVO 121438
EKON 121399
INUN 121383
EHRA 121341
DERC 121280
CHLU 121248
RKON 121200
NGEW 121195
TWIC 121193
RFAH 121120
ZUDE 121049
MPRO 121035
RSIT 121003
IEER 120945
TSAG 120900
KREI 120835
RJÄH 120611
NLIC 120509
TMEH 120441
DATE 120401
RENE 120396
ERHO 120111
RISC 120091
LENS 119996
SONN 119802
TBEI 119789
ERTW 119787
USSI 119689
KOST 119573
TEAU 119465
ERJÄ 119460
RTER 119442
ENFR 119421
ETRI 119387
LIEN 119311
ERKR 119139
EDEU 119071
CHHA 119027
VONS 119024
ZEND 119001
EIGT 118949
WACH 118915
NZEN 118897
LLUN 118887
ZEIC 118719
NMAN 118702
FREU 118678
GELA 118533
BERW 118533
DEDE 118504
BISH 118478
ATIV 118450
VONA 118442
RETE 118440
IGES 118435
OGEN 118292
LLAR 118243
INEG 118242
ICHU 118222
IESC 118164
LING 118014
GENH 117948
STDA 117701
ALIS 117437
EITD 117434
IZEI 117414
METE 117351
CHEM 117275
ZTEN 117212
EÜBE 117069
STEM 116941
LIZE 116865
TALL 116848
TERM 116807
ÄTTE 116779
EIER 116618
RANT 116558
TRAß 116356
NENW 116198
DEMA 116184
WORT 116085
ISHE 116085
BALL 115956
CHTG 115753
ALTU 115748
UNDL 115697
RSTR 115606
FANG 115563
GMIT 115526
LLEM 115463
HNEN 115461
UVER 115407
NBIS 115371
YSTE 115311
ORSC 115302
ERGI 115291
TEIG 115284
UTLI 115171
DAST 115163
BESS 115112
ENDU 115060
AINE 115012
DASP 114961
NIHR 114929
DIEU 114907
TVOR 114886
KTIE 114809
GERS 114778
NALL 114729
ERAR 114695
INHA 114661
ERUM 114566
ERFE 114557
BENE 114523
ONAT 114441
RNOC 114431
ITIK 114419
IGKE 114384
NENG 114376
BEKA 114349
GENM 114309
NABE 114302
LLIA 114250
ELEI 114203
RAßE 114142
LIND 114130
DVER 114054
KONN 114051
AFÜR 113873
RHAB 113721
TIEG 113658
SFÜR 113597
BENW 113568
ANZE 113549
RIER 113453
INAU 113450
EWIE 113445
LINE 113442
ONEI 113229
EWIR 113212
DESA 113163
SCHÜ 113160
BLEI 113154
RBAN 113108
ALSD 113026
TWAS 112998
AGER 112990
NZUS 112946
HEMA 112799
TEBE 112779
NDWI 112722
AUFM 112710
EREC 112686
TSTE 112498
RLET 112450
IELL 112180
HDEM 112179
TWUR 112178
LEIB 111860
ICHV 111849
RISE 111756
ITET 111738
LEGT 111621
MVOR 111611
TERV 111481
EILI 111436
ORMA 111378
HNET 111348
DOLL 111262
FENS 111241
SSEL 111225
NGEH 111173
ERTS 111055
PROB 110986
ÖNNT 110965
FÜRS 110947
BAND 110843
BÜRG 110772
BSCH 110747
CHTZ 110629
ITSE 110425
BERH 110382
BNIS 110362
AFTE 110251
USSE 110176
ESIE 110149
NTIE 110127
LIER 109989
HENM 109857
INDA 109846
NDST 109818
DESB 109750
TNAC 109640
HATS 109509
GENO 109387
CHLO 109347
ERPA 109314
ICHH 109254
NGIN 109188
ARTI 109188
TSTA 109058
LDIE 109057
BERT 109052
TGES 109017
NTAU 109010
MONA 108981
NFRA 108972
ERIE 108967
GRAM 108945
CHTN 108847
SSES 108727
HENG 108682
WICH 108679
ITGE 108667
GIST 108658
SBER 108553
RHAN 108529
LOSS 108524
STIN 108523
STET 108487
INDU 108460
DEME 108395
SSTA 108169
ÜREI 108139
ENTD 108085
ANSC 108038
TAGS 108000
RNAT 107919
OTEN 107727
SCHM 107626
INAL 107560
DORT 107537
WERB 107502
LLIG 107401
HTAU 107400
CHTL 107322
HLER 107283
EBNI 107274
GENZ 107211
KRIS 107196
EFER 106986
AUSB 106958
TRET 106956
VERM 106949
STDI 106935
NENB 106888
FERN 106771
NERF 106744
INFO 106723
TIEN 106658
FELD 106581
HOCH 106542
RODU 106398
GUTE 106238
PROD 106202
ASST 106132
MERS 106059
NERH 106051
SISC 106005
ENAM 105939
NTDE 105921
NDSE 105877
TERU 105707
EFIN 105585
MEDI 105470
CHTV 105459
ETRA 105351
ITAG 105346
FRAU 105322
SNIC 105320
ETZE 105153
SWAR 105109
DAFÜ 105097
ESWE 104855
ßERD 104648
RSUC 104643
LCHE 104599
TABE 104587
HINT 104548
IEAN 104519
LVER 104443
RCHD 104397
KONT 104384
TRAU 104266
NKOM 104185
STGE 104180
TEUN 104173
GRÖß 104128
ANGS 104126
IVER 104100
GENV 104002
MMUN 103873
EIDI 103796
GEBO 103676
INWE 103667
RTES 103467
SJAH 103410
MIND 103337
GENK 103170
MATI 103110
TERK 103096
DENP 103084
UNGU 103069
NGAB 103057
MERK 103003
DDAS 102966
UEIN 102954
TÜBE 102918
MJAH 102862
LERI 102836
NSPI 102818
EREM 102770
NWEN 102758
NDED 102746
ERTD 102698
UPPE 102540
LSEI 102529
NNEU 102507
ICKE 102503
ESAU 102493
ESDE 102438
MANA 102408
EFFE 102300
TWIE 102269
VONB 102252
TTEI 102243
NDMI 102169
ESEL 102156
KEHR 102115
TNUR 102104
DESW 102041
IEHE 102013
TWAR 101936
INZU 101936
ERZI 101922
OCHN 101899
ERVI 101872
PASS 101748
WOHL 101728
EERS 101728
DENZ 101665
GAUF 101529
RTAL 101487
HERH 101482
SSDE 101458
OMMT 101388
HLOS 101320
TENN 101192
EUTL 101096
RKAU 101088
RMEI 100907
RSON 100823
ILIE 100792
ZIEH 100758
RSPR 100573
DASU 100538
LERN 100502
ERFI 100392
GENF 100391
GEWA 100335
TART 100258
LAUT 100257
NENU 100185
SGER 100154
HDEN 100148
TATT 100137
GENG 100114
SENE 100031
ETRE 99988
FENT 99980
ELLU 99979
NGAN 99970
ASER 99964
ERPO 99886
UCHA 99885
MODE 99854
UMEN 99778
ZUST 99777
NENM 99768
ENDO 99681
NUTZ 99590
CKER 99499
TEGE 99433
FRÜH 99423
IEMA 99415
NETE 99372
DIGE 99360
RUPP 99266
RZEU 99204
GEFA 99204
DESK 99178
SZUM 99067
NIED 99016
SBEI 98987
SBES 98949
NHAL 98778
GERN 98727
SENW 98684
BAHN 98665
HÖHE 98658
NZIE 98617
HENI 98596
GEBN 98544
ANGA 98465
ENBI 98453
RLEI 98449
ONMI 98382
WISS 98368
ROLL 98364
ABSC 98322
NERD 98291
TRÄG 98115
EGIN 98086
ORSI 98077
REAL 97950
FEND 97926
WARD 97891
ISTS 97863
ÜNDE 97743
NGAU 97684
GESI 97622
EFOR 97622
EINL 97554
ÜHRT 97542
SMAN 97540
NERW 97538
CHEA 97494
INEE 97470
DESL 97380
BRAN 97375
WEND 97334
HTDE 97252
USEI 97239
ERAM 97238
SENA 97225
HLUS 97172
LIAR 97130
TERF 97069
SPRÄ 96981
TERL 96959
ROGR 96941
IRDD 96927
RSIN 96803
DASD 96766
HINA 96723
NSPR 96650
GDIE 96577
HWIE 96565
DUND 96474
HERI 96442
ESBE 96402
IARD 96397
EREG 96383
DENL 96329
IENT 96316
CHIC 96310
AUSW 96188
EHRS 95975
ALSO 95968
RITI 95952
IEUN 95947
ENTU 95881
TENP 95674
MERI 95573
DASV 95490
HTEI 95408
SDEN 95376
AMST 95306
DERO 95301
MONT 95279
KURZ 95158
RAUM 95139
DETE 95135
KENN 95119
IEZU 95076
LUND 95045
HTZU 95037
EIFE 95006
ESVE 94929
LDUN 94893
HÄTT 94792
EßEN 94587
HERU 94571
UNDP 94534
ZIAL 94442
IENA 94437
RTED 94306
FEHL 94225
ORBE 94186
FÄLL 94172
AGES 94057
SCHT 94047
EIMA 94035
NGZU 94020
DASF 93979
CHMA 93926
CHFÜ 93840
HNUN 93837
ILTE 93732
FUND 93685
NMUS 93661
NNTA 93573
RTRE 93504
ANAL 93417
LENA 93402
HVER 93306
TSPR 93148
ÄFTS 93125
DIGT 93057
UNDZ 92961
TSIN 92947
INFA 92932
MALI 92880
GEDE 92878
RINN 92852
EAND 92832
MILI 92801
HÄLT 92657
RNET 92653
ESUC 92621
ZUBE 92614
ALSS 92574
ÄNDI 92568
ÜRDA 92564
RENG 92483
VERD 92474
RGEW 92472
OSIT 92444
NLAN 92382
NAGE 92362
ENAR 92256
NBET 92227
POSI 92135
GEFÜ 92068
UNDN 92060
BERU 92039
NERN 92003
NDVE 91994
LTES 91781
GERM 91738
ZUVE 91486
OBLE 91416
TETW 91369
FORT 91360
WESE 91251
EAKT 91228
ASBE 91135
EFÜH 91101
EINU 91033
EMER 90930
WOHN 90907
NSGE 90892
ASSS 90873
TMAN 90867
RIED 90834
RENW 90825
TLER 90768
FÜNF 90657
EHAT 90648
NVIE 90629
IBTE 90597
UDEN 90569
SSIN 90537
NDIS 90442
RLIE 90330
IEGT 90307
LDEN 90291
EISP 90283
RDED 90248
DENR 90199
NZWE 90188
DESI 90060
IBEN 90012
CHVE 89946
EBOT 89911
NGEF 89823
UNDU 89792
ZÄHL 89768
REIF 89757
RIFF 89683
RAUE 89670
ENZW 89604
NOMM 89531
ERTU 89529
EINN 89498
RUCK 89435
ERGL 89396
STOR 89389
AMMI 89376
GREI 89364
SHAT 89345
DAVO 89333
ONAU 89317
ELBE 89230
TELE 89212
ESAG 89150
CHUM 89147
HRAL 89133
KTUR 89122
DESV 89086
RBRA 89061
HTES 89058
ETZU 89041
BEDE 89038
DÜRF 88957
NGEI 88927
LICK 88818
UMEI 88783
ANND 88781
NMAR 88679
TSIE 88661
RMEN 88637
IEDA 88636
USTE 88613
ONSE 88569
IKER 88523
AYER 88492
KUNG 88485
ZUSC 88415
EAUC 88405
SKON 88398
RINS 88393
EBRA 88299
EBUN 88233
DASL 88200
GTEE 88179
NZUR 88138
BACH 88137
ESPI 88101
UNGZ 88086
NDAR 88022
IONI 88003
SIEH 87940
AVON 87870
HTGE 87862
URGE 87823
SAMS 87816
NNDI 87783
RVIE 87770
EINP 87681
VEST 87573
NENN 87549
MISS 87547
SITI 87541
IERI 87521
HTME 87508
UTER 87505
KURS 87388
TRIT 87386
ORAL 87359
REUN 87325
IEMI 87300
NGSA 87210
RIKA 87202
UMDI 87138
DORF 87136
EMAC 87076
NDHA 87069
IEKO 87067
SAGE 87056
NHAU 87049
LAUB 86984
NDWE 86910
ISLA 86875
NDOR 86828
FASS 86773
ENDR 86720
LERS 86709
ANZI 86636
ROBL 86623
EWAR 86609
ENKR 86598
EINV 86552
JUNG 86547
STUD 86537
TESE 86519
ERTH 86457
ENGA 86456
IZIE 86439
RTIG 86382
STIG 86297
HENF 86261
USTR 86255
HNEL 86247
TEVO 86242
INEB 86231
RTWE 86200
RERE 86188
LTED 86150
GETR 86147
NGSS 86126
ESIS 86093
NERI 86048
ININ 86014
DUKT 86003
GEHÖ 86001
LTWE 85987
HOFF 85976
ANNA 85971
BLEM 85910
ERWO 85861
RLAU 85758
ENBU 85661
IENI 85568
PROF 85564
NGGE 85538
CHTB 85478
ZUEI 85416
NWUR 85409
DASN 85377
ISTN 85309
BTES 85276
ANNI 85274
ELIE 85268
SSSI 85223
ASUN 85160
ANCH 85134
TTED 85128
ÖRDE 85100
IEWE 84974
CHNO 84921
ENES 84879
HENV 84858
TALT 84855
HINE 84818
HBEI 84818
FRIE 84804
INIE 84802
TARK 84775
ÄRTE 84768
ITTW 84729
GFÜR 84710
WÄHR 84621
SPRI 84601
GEMA 84536
GENÜ 84530
EGEG 84506
IMMT 84408
LIGA 84405
EDOC 84401
RHAU 84364
GEHA 84348
MENA 84338
CHME 84321
VONP 84151
UNGB 84119
ESTÄ 84082
NEMA 84065
SAND 84059
TORE 84047
ARTA 84034
RNUN 84019
SSIO 83985
ANDD 83947
JEKT 83893
ETRO 83885
GEWO 83834
LIEF 83802
KONS 83707
NINS 83689
NZUM 83674
INGT 83640
MINU 83635
GEBR 83615
ESES 83615
ELAU 83605
UFTR 83586
ICKL 83541
EGAN 83530
GERU 83521
DESE 83459
HILF 83448
AFFE 83448
UNGG 83437
LAUS 83351
ILIG 83331
ENNU 83289
KTIV 83255
ELLS 83195
ENKU 83156
ENFE 83151
NISS 83109
TARB 83095
NSEH 83092
NSON 83073
RMAR 83026
TEMA 82987
TWOC 82959
ESTO 82950
ZUSE 82922
MAUF 82904
ERJA 82899
LIED 82868
EMAL 82841
DEMN 82836
UMPR 82760
ZEHN 82700
ZLIC 82696
ELIN 82691
ÄCHE 82633
EMIN 82581
IEHT 82570
DESG 82567
ÖFFE 82564
ILLE 82535
UMSA 82509
ALIT 82441
HTDA 82379
TETD 82369
EREU 82307
ATIS 82286
REFF 82239
DESR 82230
ERKU 82214
ODUK 82206
NENK 82205
BAUE 82202
NENI 82074
NDSI 82058
ENMO 82055
KOMP 82031
ENHI 82000
NDZU 81984
MUND 81982
OBIL 81964
ENPA 81956
WEST 81933
TEMI 81923
ASSA 81909
NIMM 81903
SMIN 81874
KRAN 81845
ERLÄ 81832
HALL 81803
CHEL 81773
GESU 81725
MIER 81723
MFRE 81723
SIED 81713
IKAN 81709
NERM 81648
NGEK 81541
HFÜR 81531
NMIN 81509
PROJ 81500
BRAC 81500
RÜND 81286
EFAH 81285
DMIT 81192
SYST 81180
ELTW 81176
EITG 81085
TÄTI 81008
AATS 81004
UDIE 81003
HTLI 80882
NENV 80786
INEK 80778
NODE 80737
NORD 80725
NBAR 80720
NFAN 80673
DEMB 80673
ÄTER 80640
NVES 80621
EPLA 80551
RHER 80504
ERAD 80461
DEMI 80407
AHRZ 80398
DRUC 80394
NNDE 80308
IEME 80274
TENL 80168
MOBI 80123
CHEB 80112
NGEM 80106
EUGE 80087
ELUN 80035
ANDR 80016
RWEL 79994
EIBT 79942
NGBE 79934
WÄRE 79933
CHNU 79933
ROFF 79924
ERMU 79910
SAUC 79882
HMER 79818
RFRA 79749
ERDR 79741
RADE 79731
OCHS 79702
HRIS 79683
SMUS 79542
AUFP 79533
REKT 79503
NSAT 79451
TERZ 79433
TERP 79407
INZE 79395
DSEI 79352
DONN 79291
HSEI 79265
HENT 79256
GRUP 79187
NHAN 79096
ANCE 79065
MITI 79030
LAST 79016
ACHA 79014
SZEI 78990
GTES 78936
RENU 78916
QUAR 78911
UNGF 78884
TREF 78862
ENOM 78844
SGEL 78829
WASS 78726
TAGA 78640
TZER 78578
EINR 78565
AUSF 78554
SWER 78516
ENMU 78505
EHAN 78421
NDLE 78419
TTWO 78351
HERR 78345
UART 78342
AMIL 78273
NDUR 78260
UCHW 78234
HATE 78209
RSPI 78136
EZAH 78072
WETT 78069
MUSI 77953
ALSA 77883
USSC 77877
ERHÄ 77821
ENFI 77821
ERÜB 77705
ENLI 77705
RUCH 77667
MSON 77642
BEDI 77632
NTWO 77577
BRIN 77567
RMIN 77539
ACHM 77516
RÖFF 77384
RREN 77287
REDI 77283
LITÄ 77269
ERLO 77217
GING 77131
TGEG 77105
HERT 77099
TEZU 77034
NTES 77001
NFAC 76975
TIKE 76928
NENF 76926
ONTR 76919
MENW 76866
ROJE 76822
ROBE 76818
STIT 76809
RSEN 76796
EMGE 76693
IEWI 76690
HULE 76663
DELT 76514
DEMD 76512
OLOG 76475
ESEH 76410
KAMP 76381
AMTE 76327
BAYE 76304
UMGE 76236
STIS 76209
GLIE 76198
ERÖF 76155
THER 76124
NKUR 76122
ROPA 76064
ESAN 76062
ASHA 76060
GSEI 76043
ENTH 76041
TUEL 76036
NUNS 76032
ICHF 76002
ITZU 75991
BERM 75904
IELA 75855
HENH 75846
HWAR 75801
NKUN 75790
ANTW 75746
URTE 75732
WAND 75643
CHIS 75593
EALS 75527
ISPI 75517
BUNG 75511
CHAR 75452
TRAT 75433
RZWE 75426
OßEN 75395
NNSC 75381
SERV 75355
AUSL 75288
ATSI 75288
SERG 75273
NEUN 75261
AUBE 75260
INEF 75238
BESI 75130
RREG 75109
TRAF 75077
PPEN 75074
KLIC 75057
EPOL 75055
NATE 74962
EBLI 74949
HERD 74947
ABES 74899
BENA 74872
NNUN 74844
ARIN 74838
OCHD 74831
HERN 74772
ÄTZE 74757
ÜCKE 74722
FILM 74704
MANS 74700
BEIN 74571
DRIT 74514
EZUS 74488
GINN 74472
ORTS 74456
LANT 74439
ITSI 74413
LÄSS 74377
ÄTIG 74358
SSUN 74255
EARB 74236
WIEE 74232
NLEI 74229
DIEJ 74205
LISC 74194
REST 74171
TENR 74133
EANG 74129
MMON 74124
ERHÖ 74108
NERB 74099
ERLU 74089
UNDR 74065
RMAT 74029
SKAN 74027
RTDE 74007
UCHN 73983
NANN 73980
ITEL 73974
ITTA 73907
HSEL 73828
TTES 73820
RKUN 73791
ANDL 73773
NKRE 73651
GIND 73628
EHAL 73626
ASWA 73618
ERCH 73596
NMEI 73593
NGSE 73580
SRAT 73491
JEDO 73490
NHER 73484
NEST 73468
RENB 73385
MITM 73385
CHTH 73385
STBE 73349
ERRI 73337
ESST 73330
UNDT 73289
DWIR 73255
NFRE 73209
OJEK 73163
ERIG 73159
TÄRK 73157
ISON 73139
HNAC 73027
MSAT 73023
MGES 72987
ANFA 72971
INDD 72966
SSAG 72945
FIZI 72931
ENBR 72920
HRZE 72877
TBES 72830
ENWU 72774
UMDE 72747
NDVO 72735
RSIE 72704
BERR 72688
TPRO 72547
STÄR 72478
RKEH 72436
IDIE 72425
ITTL 72383
EIHE 72321
TEUR 72313
ISEI 72176
NMIL 72133
MNAC 72105
AGEG 72072
ITAR 72062
TZLI 72042
KLAR 72041
INKE 71931
LEME 71924
SSPI 71903
ORDN 71817
KAME 71762
BUCH 71699
IESP 71680
AKTU 71645
ASIN 71622
RUSS 71591
FUNK 71534
DIRE 71527
AMMO 71520
ANAG 71493
MDER 71489
EILD 71478
NDHE 71419
CHUT 71317
NMÜS 71307
AUFZ 71301
LENW 71271
RGEL 71181
ANEI 71160
ARAN 71114
GVER 71054
KLUN 71045
ERZW 71044
EITR 71037
TRAN 70981
CKLU 70972
GSCH 70822
RGEH 70769
MENG 70766
CHNA 70721
DEMW 70713
HENZ 70619
HUTZ 70614
RARB 70588
STÄT 70455
TWEN 70430
DESF 70407
HAFF 70376
INSO 70348
LATT 70344
VORB 70333
WIND 70272
BEGI 70230
MITB 70193
STRO 70192
ACHW 70166
NTED 70156
INGA 70150
AMFR 70114
RKEI 70098
DAUF 70071
ANLA 70054
ENIH 70049
UERN 70036
AUST 70026
ARUN 69995
TOFF 69958